2
Lattice="12.0 0.0 0.0 0.0 12.0 0.0 0.0 0.0 12.0" Properties=species:S:1:pos:R:3:forces:R:3 energy=-3173.486504446 config_type=dimers pbc="T T T"
Ti       0.00000000       0.00000000       0.00000000      -0.00000000      -0.00000000       0.92499000
Ti       0.00000000       0.00000000       3.99999600       0.00000000       0.00000000      -0.92499000
2
Lattice="12.0 0.0 0.0 0.0 12.0 0.0 0.0 0.0 12.0" Properties=species:S:1:pos:R:3:forces:R:3 energy=-3176.176827039 config_type=dimers pbc="T T T"
Ti       0.00000000       0.00000000       0.00000000      -0.00000000      -0.00000000       3.54074000
Ti       0.00000000       0.00000000       2.60000400       0.00000000       0.00000000      -3.54074000
2
Lattice="12.0 0.0 0.0 0.0 12.0 0.0 0.0 0.0 12.0" Properties=species:S:1:pos:R:3:forces:R:3 energy=-3175.149978234 config_type=dimers pbc="T T T"
Ti       0.00000000       0.00000000       0.00000000      -0.00000000      -0.00000000     -27.70007000
Ti       0.00000000       0.00000000       1.50000000       0.00000000       0.00000000      27.70007000
2
Lattice="12.0 0.0 0.0 0.0 12.0 0.0 0.0 0.0 12.0" Properties=species:S:1:pos:R:3:forces:R:3 energy=-3151.325330066 config_type=dimers pbc="T T T"
Ti       0.00000000       0.00000000       0.00000000       0.00000000      -0.00000000    -169.41107000
Ti       0.00000000       0.00000000       1.20000000      -0.00000000       0.00000000     169.41107000
2
Lattice="12.0 0.0 0.0 0.0 12.0 0.0 0.0 0.0 12.0" Properties=species:S:1:pos:R:3:forces:R:3 energy=-3178.509083091 config_type=dimers pbc="T T T"
Ti       0.00000000       0.00000000       0.00000000       0.00000000       0.00000000      -1.83202000
Ti       0.00000000       0.00000000       1.80000000      -0.00000000      -0.00000000       1.83202000
2
Lattice="12.0 0.0 0.0 0.0 12.0 0.0 0.0 0.0 12.0" Properties=species:S:1:pos:R:3:forces:R:3 energy=-3172.90680396 config_type=dimers pbc="T T T"
Ti       0.00000000       0.00000000       0.00000000       0.00007000       0.00004000       0.29882000
Ti       0.00000000       0.00000000       5.00000400      -0.00007000      -0.00004000      -0.29882000
2
Lattice="12.0 0.0 0.0 0.0 12.0 0.0 0.0 0.0 12.0" Properties=species:S:1:pos:R:3:forces:R:3 energy=-3177.172388856 config_type=dimers pbc="T T T"
Ti       0.00000000       0.00000000       0.00000000       0.00000000       0.00000000     -13.94953000
Ti       0.00000000       0.00000000       1.59999600      -0.00000000      -0.00000000      13.94953000
2
Lattice="12.0 0.0 0.0 0.0 12.0 0.0 0.0 0.0 12.0" Properties=species:S:1:pos:R:3:forces:R:3 energy=-3177.754952413 config_type=dimers pbc="T T T"
Ti       0.00000000       0.00000000       0.00000000       0.00000000       0.00000000       3.95694000
Ti       0.00000000       0.00000000       2.19999600      -0.00000000      -0.00000000      -3.95694000
2
Lattice="12.0 0.0 0.0 0.0 12.0 0.0 0.0 0.0 12.0" Properties=species:S:1:pos:R:3:forces:R:3 energy=-3175.527805127 config_type=dimers pbc="T T T"
Ti       0.00000000       0.00000000       0.00000000      -0.00000000      -0.00000000       2.94298000
Ti       0.00000000       0.00000000       2.79999600       0.00000000       0.00000000      -2.94298000
2
Lattice="12.0 0.0 0.0 0.0 12.0 0.0 0.0 0.0 12.0" Properties=species:S:1:pos:R:3:forces:R:3 energy=-3128.655357183 config_type=dimers pbc="T T T"
Ti       0.00000000       0.00000000       0.00000000      -0.00007000      -0.00003000    -293.71558000
Ti       0.00000000       0.00000000       1.10000400       0.00007000       0.00003000     293.71558000
2
Lattice="12.0 0.0 0.0 0.0 12.0 0.0 0.0 0.0 12.0" Properties=species:S:1:pos:R:3:forces:R:3 energy=-3178.560070931 config_type=dimers pbc="T T T"
Ti       0.00000000       0.00000000       0.00000000       0.00000000       0.00000000       0.62977000
Ti       0.00000000       0.00000000       1.89999600      -0.00000000      -0.00000000      -0.62977000
2
Lattice="12.0 0.0 0.0 0.0 12.0 0.0 0.0 0.0 12.0" Properties=species:S:1:pos:R:3:forces:R:3 energy=-3164.190255749 config_type=dimers pbc="T T T"
Ti       0.00000000       0.00000000       0.00000000      -0.00000000       0.00000000     -94.61953000
Ti       0.00000000       0.00000000       1.29999600       0.00000000      -0.00000000      94.61953000
2
Lattice="12.0 0.0 0.0 0.0 12.0 0.0 0.0 0.0 12.0" Properties=species:S:1:pos:R:3:forces:R:3 energy=-3178.409413386 config_type=dimers pbc="T T T"
Ti       0.00000000       0.00000000       0.00000000       0.00000000       0.00000000       2.27925000
Ti       0.00000000       0.00000000       2.00000400      -0.00000000      -0.00000000      -2.27925000
2
Lattice="12.0 0.0 0.0 0.0 12.0 0.0 0.0 0.0 12.0" Properties=species:S:1:pos:R:3:forces:R:3 energy=-3174.99635856 config_type=dimers pbc="T T T"
Ti       0.00000000       0.00000000       0.00000000       0.00001000      -0.00000000       2.38629000
Ti       0.00000000       0.00000000       3.00000000      -0.00001000       0.00000000      -2.38629000
2
Lattice="12.0 0.0 0.0 0.0 12.0 0.0 0.0 0.0 12.0" Properties=species:S:1:pos:R:3:forces:R:3 energy=-3171.305859931 config_type=dimers pbc="T T T"
Ti       0.00000000       0.00000000       0.00000000       0.00000000       0.00000000     -51.68251000
Ti       0.00000000       0.00000000       1.40000400      -0.00000000      -0.00000000      51.68251000
2
Lattice="12.0 0.0 0.0 0.0 12.0 0.0 0.0 0.0 12.0" Properties=species:S:1:pos:R:3:forces:R:3 energy=-3091.091726753 config_type=dimers pbc="T T T"
Ti       0.00000000       0.00000000       0.00000000       0.00000000      -0.00000000    -464.51991000
Ti       0.00000000       0.00000000       0.99999600      -0.00000000       0.00000000     464.51991000
2
Lattice="12.0 0.0 0.0 0.0 12.0 0.0 0.0 0.0 12.0" Properties=species:S:1:pos:R:3:forces:R:3 energy=-3178.135079656 config_type=dimers pbc="T T T"
Ti       0.00000000       0.00000000       0.00000000      -0.00000000       0.00000000      -6.08008000
Ti       0.00000000       0.00000000       1.70000400       0.00000000      -0.00000000       6.08008000
2
Lattice="12.0 0.0 0.0 0.0 12.0 0.0 0.0 0.0 12.0" Properties=species:S:1:pos:R:3:forces:R:3 energy=-3176.936788627 config_type=dimers pbc="T T T"
Ti       0.00000000       0.00000000       0.00000000       0.00000000      -0.00000000       4.02569000
Ti       0.00000000       0.00000000       2.40000000      -0.00000000       0.00000000      -4.02569000
2
Lattice="12.0 0.0 0.0 0.0 12.0 0.0 0.0 0.0 12.0" Properties=species:S:1:pos:R:3:forces:R:3 energy=-182.2328428666 config_type=dimers pbc="T T T"
Al       0.00000000       0.00000000       0.00000000      -0.00004000      -0.00006000     -74.64822000
Al       0.00000000       0.00000000       1.10000400       0.00004000       0.00006000      74.64822000
2
Lattice="12.0 0.0 0.0 0.0 12.0 0.0 0.0 0.0 12.0" Properties=species:S:1:pos:R:3:forces:R:3 energy=-213.1990232251 config_type=dimers pbc="T T T"
Al       0.00000000       0.00000000       0.00000000      -0.00000000       0.00000000       0.34848000
Al       0.00000000       0.00000000       2.79999600       0.00000000      -0.00000000      -0.34848000
2
Lattice="12.0 0.0 0.0 0.0 12.0 0.0 0.0 0.0 12.0" Properties=species:S:1:pos:R:3:forces:R:3 energy=-212.8728581382 config_type=dimers pbc="T T T"
Al       0.00000000       0.00000000       0.00000000       0.00000000      -0.00000000      -2.74835000
Al       0.00000000       0.00000000       2.19999600      -0.00000000       0.00000000       2.74835000
2
Lattice="12.0 0.0 0.0 0.0 12.0 0.0 0.0 0.0 12.0" Properties=species:S:1:pos:R:3:forces:R:3 energy=-205.9648332648 config_type=dimers pbc="T T T"
Al       0.00000000       0.00000000       0.00000000       0.00000000      -0.00000000     -26.08212000
Al       0.00000000       0.00000000       1.59999600      -0.00000000       0.00000000      26.08212000
2
Lattice="12.0 0.0 0.0 0.0 12.0 0.0 0.0 0.0 12.0" Properties=species:S:1:pos:R:3:forces:R:3 energy=-211.9018848613 config_type=dimers pbc="T T T"
Al       0.00000000       0.00000000       0.00000000       0.00000000      -0.00000000       0.39860000
Al       0.00000000       0.00000000       5.00000400      -0.00000000       0.00000000      -0.39860000
2
Lattice="12.0 0.0 0.0 0.0 12.0 0.0 0.0 0.0 12.0" Properties=species:S:1:pos:R:3:forces:R:3 energy=-209.9056554624 config_type=dimers pbc="T T T"
Al       0.00000000       0.00000000       0.00000000      -0.00000000       0.00000000     -14.19388000
Al       0.00000000       0.00000000       1.80000000       0.00000000      -0.00000000      14.19388000
2
Lattice="12.0 0.0 0.0 0.0 12.0 0.0 0.0 0.0 12.0" Properties=species:S:1:pos:R:3:forces:R:3 energy=-188.9975101128 config_type=dimers pbc="T T T"
Al       0.00000000       0.00000000       0.00000000      -0.00002000      -0.00003000     -61.26195000
Al       0.00000000       0.00000000       1.20000000       0.00002000       0.00003000      61.26195000
2
Lattice="12.0 0.0 0.0 0.0 12.0 0.0 0.0 0.0 12.0" Properties=species:S:1:pos:R:3:forces:R:3 energy=-202.9716567596 config_type=dimers pbc="T T T"
Al       0.00000000       0.00000000       0.00000000      -0.00015000       0.00031000     -33.92648000
Al       0.00000000       0.00000000       1.50000000       0.00015000      -0.00031000      33.92648000
2
Lattice="12.0 0.0 0.0 0.0 12.0 0.0 0.0 0.0 12.0" Properties=species:S:1:pos:R:3:forces:R:3 energy=-213.2408859259 config_type=dimers pbc="T T T"
Al       0.00000000       0.00000000       0.00000000      -0.00000000       0.00000000       0.02828000
Al       0.00000000       0.00000000       2.60000400       0.00000000      -0.00000000      -0.02828000
2
Lattice="12.0 0.0 0.0 0.0 12.0 0.0 0.0 0.0 12.0" Properties=species:S:1:pos:R:3:forces:R:3 energy=-212.4636512727 config_type=dimers pbc="T T T"
Al       0.00000000       0.00000000       0.00000000      -0.00000000       0.00000000       0.68875000
Al       0.00000000       0.00000000       3.99999600       0.00000000      -0.00000000      -0.68875000
2
Lattice="12.0 0.0 0.0 0.0 12.0 0.0 0.0 0.0 12.0" Properties=species:S:1:pos:R:3:forces:R:3 energy=-213.1841911916 config_type=dimers pbc="T T T"
Al       0.00000000       0.00000000       0.00000000      -0.00000000       0.00000000      -0.69864000
Al       0.00000000       0.00000000       2.40000000       0.00000000      -0.00000000       0.69864000
2
Lattice="12.0 0.0 0.0 0.0 12.0 0.0 0.0 0.0 12.0" Properties=species:S:1:pos:R:3:forces:R:3 energy=-208.2320128645 config_type=dimers pbc="T T T"
Al       0.00000000       0.00000000       0.00000000      -0.00000000      -0.00000000     -19.48633000
Al       0.00000000       0.00000000       1.70000400       0.00000000       0.00000000      19.48633000
2
Lattice="12.0 0.0 0.0 0.0 12.0 0.0 0.0 0.0 12.0" Properties=species:S:1:pos:R:3:forces:R:3 energy=-173.9223482842 config_type=dimers pbc="T T T"
Al       0.00000000       0.00000000       0.00000000       0.00004000      -0.00022000     -92.49832000
Al       0.00000000       0.00000000       0.99999600      -0.00004000       0.00022000      92.49832000
2
Lattice="12.0 0.0 0.0 0.0 12.0 0.0 0.0 0.0 12.0" Properties=species:S:1:pos:R:3:forces:R:3 energy=-199.1897533692 config_type=dimers pbc="T T T"
Al       0.00000000       0.00000000       0.00000000      -0.00000000      -0.00004000     -41.80172000
Al       0.00000000       0.00000000       1.40000400       0.00000000       0.00004000      41.80172000
2
Lattice="12.0 0.0 0.0 0.0 12.0 0.0 0.0 0.0 12.0" Properties=species:S:1:pos:R:3:forces:R:3 energy=-213.1123201742 config_type=dimers pbc="T T T"
Al       0.00000000       0.00000000       0.00000000      -0.00000000       0.00000000       0.50143000
Al       0.00000000       0.00000000       3.00000000       0.00000000      -0.00000000      -0.50143000
2
Lattice="12.0 0.0 0.0 0.0 12.0 0.0 0.0 0.0 12.0" Properties=species:S:1:pos:R:3:forces:R:3 energy=-211.9497618574 config_type=dimers pbc="T T T"
Al       0.00000000       0.00000000       0.00000000      -0.00000000       0.00000000      -6.89412000
Al       0.00000000       0.00000000       2.00000400       0.00000000      -0.00000000       6.89412000
2
Lattice="12.0 0.0 0.0 0.0 12.0 0.0 0.0 0.0 12.0" Properties=species:S:1:pos:R:3:forces:R:3 energy=-194.576563659 config_type=dimers pbc="T T T"
Al       0.00000000       0.00000000       0.00000000       0.00001000      -0.00004000     -50.68653000
Al       0.00000000       0.00000000       1.29999600      -0.00001000       0.00004000      50.68653000
2
Lattice="12.0 0.0 0.0 0.0 12.0 0.0 0.0 0.0 12.0" Properties=species:S:1:pos:R:3:forces:R:3 energy=-211.1093974982 config_type=dimers pbc="T T T"
Al       0.00000000       0.00000000       0.00000000      -0.00000000      -0.00000000     -10.05920000
Al       0.00000000       0.00000000       1.89999600       0.00000000       0.00000000      10.05920000
2
Lattice="12.0 0.0 0.0 0.0 12.0 0.0 0.0 0.0 12.0" Properties=species:S:1:pos:R:3:forces:R:3 energy=-1651.135581479 config_type=dimers pbc="T T T"
Al       0.00000000       0.00000000       1.10000400       0.00000000      -0.00000000     183.55456000
Ti       0.00000000       0.00000000       0.00000000      -0.00000000       0.00000000    -183.55456000
2
Lattice="12.0 0.0 0.0 0.0 12.0 0.0 0.0 0.0 12.0" Properties=species:S:1:pos:R:3:forces:R:3 energy=-1694.30901445 config_type=dimers pbc="T T T"
Al       0.00000000       0.00000000       2.79999600       0.00000000      -0.00000000      -0.77442000
Ti       0.00000000       0.00000000       0.00000000      -0.00000000       0.00000000       0.77442000
2
Lattice="12.0 0.0 0.0 0.0 12.0 0.0 0.0 0.0 12.0" Properties=species:S:1:pos:R:3:forces:R:3 energy=-1694.133565048 config_type=dimers pbc="T T T"
Al       0.00000000       0.00000000       2.19999600       0.00000000      -0.00000000       1.71319000
Ti       0.00000000       0.00000000       0.00000000      -0.00000000       0.00000000      -1.71319000
2
Lattice="12.0 0.0 0.0 0.0 12.0 0.0 0.0 0.0 12.0" Properties=species:S:1:pos:R:3:forces:R:3 energy=-1688.947961666 config_type=dimers pbc="T T T"
Al       0.00000000       0.00000000       1.59999600      -0.00000000       0.00000000      22.53238000
Ti       0.00000000       0.00000000       0.00000000       0.00000000      -0.00000000     -22.53238000
2
Lattice="12.0 0.0 0.0 0.0 12.0 0.0 0.0 0.0 12.0" Properties=species:S:1:pos:R:3:forces:R:3 energy=-1692.508927069 config_type=dimers pbc="T T T"
Al       0.00000000       0.00000000       5.00000400       0.00000000       0.00000000      -0.36803000
Ti       0.00000000       0.00000000       0.00000000      -0.00000000      -0.00000000       0.36803000
2
Lattice="12.0 0.0 0.0 0.0 12.0 0.0 0.0 0.0 12.0" Properties=species:S:1:pos:R:3:forces:R:3 energy=-1692.094064534 config_type=dimers pbc="T T T"
Al       0.00000000       0.00000000       1.80000000       0.00001000      -0.00002000      10.50400000
Ti       0.00000000       0.00000000       0.00000000      -0.00001000       0.00002000     -10.50400000
2
Lattice="12.0 0.0 0.0 0.0 12.0 0.0 0.0 0.0 12.0" Properties=species:S:1:pos:R:3:forces:R:3 energy=-1666.090984782 config_type=dimers pbc="T T T"
Al       0.00000000       0.00000000       1.20000000       0.00000000       0.00000000     119.75473000
Ti       0.00000000       0.00000000       0.00000000      -0.00000000      -0.00000000    -119.75473000
2
Lattice="12.0 0.0 0.0 0.0 12.0 0.0 0.0 0.0 12.0" Properties=species:S:1:pos:R:3:forces:R:3 energy=-1686.187990424 config_type=dimers pbc="T T T"
Al       0.00000000       0.00000000       1.50000000      -0.00000000      -0.00000000      33.43394000
Ti       0.00000000       0.00000000       0.00000000       0.00000000       0.00000000     -33.43394000
2
Lattice="12.0 0.0 0.0 0.0 12.0 0.0 0.0 0.0 12.0" Properties=species:S:1:pos:R:3:forces:R:3 energy=-1694.410770719 config_type=dimers pbc="T T T"
Al       0.00000000       0.00000000       2.60000400      -0.00000000       0.00000000      -0.16461000
Ti       0.00000000       0.00000000       0.00000000       0.00000000      -0.00000000       0.16461000
2
Lattice="12.0 0.0 0.0 0.0 12.0 0.0 0.0 0.0 12.0" Properties=species:S:1:pos:R:3:forces:R:3 energy=-1693.103637313 config_type=dimers pbc="T T T"
Al       0.00000000       0.00000000       3.99999600       0.00000000       0.00000000      -0.83651000
Ti       0.00000000       0.00000000       0.00000000      -0.00000000      -0.00000000       0.83651000
2
Lattice="12.0 0.0 0.0 0.0 12.0 0.0 0.0 0.0 12.0" Properties=species:S:1:pos:R:3:forces:R:3 energy=-1694.354536654 config_type=dimers pbc="T T T"
Al       0.00000000       0.00000000       2.40000000       0.00000000      -0.00000000       0.65903000
Ti       0.00000000       0.00000000       0.00000000      -0.00000000       0.00000000      -0.65903000
2
Lattice="12.0 0.0 0.0 0.0 12.0 0.0 0.0 0.0 12.0" Properties=species:S:1:pos:R:3:forces:R:3 energy=-1690.817667191 config_type=dimers pbc="T T T"
Al       0.00000000       0.00000000       1.70000400       0.00000000      -0.00000000      15.34237000
Ti       0.00000000       0.00000000       0.00000000      -0.00000000       0.00000000     -15.34237000
2
Lattice="12.0 0.0 0.0 0.0 12.0 0.0 0.0 0.0 12.0" Properties=species:S:1:pos:R:3:forces:R:3 energy=-1628.349050701 config_type=dimers pbc="T T T"
Al       0.00000000       0.00000000       0.99999600       0.00002000      -0.00001000     277.99873000
Ti       0.00000000       0.00000000       0.00000000      -0.00002000       0.00001000    -277.99873000
2
Lattice="12.0 0.0 0.0 0.0 12.0 0.0 0.0 0.0 12.0" Properties=species:S:1:pos:R:3:forces:R:3 energy=-1682.064828166 config_type=dimers pbc="T T T"
Al       0.00000000       0.00000000       1.40000400      -0.00000000       0.00000000      50.30129000
Ti       0.00000000       0.00000000       0.00000000       0.00000000      -0.00000000     -50.30129000
2
Lattice="12.0 0.0 0.0 0.0 12.0 0.0 0.0 0.0 12.0" Properties=species:S:1:pos:R:3:forces:R:3 energy=-1694.124109269 config_type=dimers pbc="T T T"
Al       0.00000000       0.00000000       3.00000000      -0.00000000       0.00000000      -1.03186000
Ti       0.00000000       0.00000000       0.00000000       0.00000000      -0.00000000       1.03186000
2
Lattice="12.0 0.0 0.0 0.0 12.0 0.0 0.0 0.0 12.0" Properties=species:S:1:pos:R:3:forces:R:3 energy=-1693.555372628 config_type=dimers pbc="T T T"
Al       0.00000000       0.00000000       2.00000400       0.00000000       0.00000000       4.62896000
Ti       0.00000000       0.00000000       0.00000000      -0.00000000      -0.00000000      -4.62896000
2
Lattice="12.0 0.0 0.0 0.0 12.0 0.0 0.0 0.0 12.0" Properties=species:S:1:pos:R:3:forces:R:3 energy=-1675.791629529 config_type=dimers pbc="T T T"
Al       0.00000000       0.00000000       1.29999600       0.00000000       0.00000000      77.28950000
Ti       0.00000000       0.00000000       0.00000000      -0.00000000      -0.00000000     -77.28950000
2
Lattice="12.0 0.0 0.0 0.0 12.0 0.0 0.0 0.0 12.0" Properties=species:S:1:pos:R:3:forces:R:3 energy=-1692.96906782 config_type=dimers pbc="T T T"
Al       0.00000000       0.00000000       1.89999600      -0.00000000       0.00001000       7.17944000
Ti       0.00000000       0.00000000       0.00000000       0.00000000      -0.00001000      -7.17944000
